/*--------------------------------*- C++ -*----------------------------------*\
| =========                 |                                                 |
| \\      /  F ield         | OpenFOAM: The Open Source CFD Toolbox           |
|  \\    /   O peration     | Version:  v2406                                 |
|   \\  /    A nd           | Website:  www.openfoam.com                      |
|    \\/     M anipulation  |                                                 |
\*---------------------------------------------------------------------------*/
FoamFile
{
    version     2.0;
    format      ascii;
    class       dictionary;
    object      changeDictionaryDict;
}
// * * * * * * * * * * * * * * * * * * * * * * * * * * * * * * * * * * * * * //

boundary
{
    FrontBack
    {
        type            empty;
        physicalType    empty;
    }
    Top
    {
        type            wall;
        physicalType    wall;
    }
    Out
    {
        type            patch;
        physicalType    patch;
    }
    Bottom
    {
        type            wall;
        physicalType    wall;
    }
    In
    {
        type            patch;
        physicalType    patch;
    }
    Circle
    {
        type            wall;
        physicalType    wall;
    }
}

// ************************************************************************* //