/*--------------------------------*- C++ -*----------------------------------*\
| =========                 |                                                 |
| \\      /  F ield         | OpenFOAM: The Open Source CFD Toolbox           |
|  \\    /   O peration     | Version:  v2406                                 |
|   \\  /    A nd           | Website:  www.openfoam.com                      |
|    \\/     M anipulation  |                                                 |
\*---------------------------------------------------------------------------*/
FoamFile
{
    version     2.0;
    format      ascii;
    class       dictionary;
    object      controlDict;
}
// * * * * * * * * * * * * * * * * * * * * * * * * * * * * * * * * * * * * * //

application     icoFoam;

startFrom       startTime;

startTime       0;

stopAt          endTime;

endTime         100.0;

deltaT          0.005;

writeControl    runTime;

writeInterval   0.1;

purgeWrite      0;

writeFormat     ascii;

writePrecision  6;

writeCompression off;

timeFormat      general;

timePrecision   6;

runTimeModifiable true;

adjustTimeStep  yes;
maxCo          0.2;

functions
{

    forceCoeffs
    {
        type            forceCoeffs;
        libs            (forces);
        writeControl    timeStep;
        writeInterval   1;

        patches         (Circle);
        p               p;
        U               U;
        rhoInf          1;
        rho             rhoInf;
        pRef            0;
        CofR            (0.2 0.2 0.05);

        liftDir         (0 1 0);
        dragDir         (1 0 0);
        pitchAxis       (0 0 1);
        magUInf         0.2;
        lRef            0.1;
        Aref            0.01;
    }
}