/*--------------------------------*- C++ -*----------------------------------*\
| =========                 |                                                 |
| \\      /  F ield         | OpenFOAM: The Open Source CFD Toolbox           |
|  \\    /   O peration     | Version:  v2406                                 |
|   \\  /    A nd           | Website:  www.openfoam.com                      |
|    \\/     M anipulation  |                                                 |
\*---------------------------------------------------------------------------*/
FoamFile
{
    version     2.0;
    format      ascii;
    class       volVectorField;
    object      U;
}
// * * * * * * * * * * * * * * * * * * * * * * * * * * * * * * * * * * * * * //

dimensions      [0 1 -1 0 0 0 0];

internalField   uniform (0 0 0);

boundaryField
{
    FrontBack
    {
        type            empty;
    }
    Top
    {
        type            noSlip;
    }
    In
    {
        type            codedFixedValue;
        name            parabolicInlet;
        value           uniform (0 0 0);
        code            #{
            const scalar uMax = 0.8025;
            const scalar h = 0.41;
            const scalar C = 6.0;
            
            const vectorField& Cf = patch().Cf();
            vectorField& field = *this;
            
            forAll(Cf, i)
            {
                const scalar y = Cf[i].y();
                const scalar u = C * uMax * (y * (h - y)) / (h * h);
                field[i] = vector(u, 0, 0);
            }
        #};
    }
    Bottom
    {
        type            noSlip;
    }
    Out
    {
        type            zeroGradient;
    }
    Circle
    {
        type            noSlip;
    }
}

// ************************************************************************* //
