/*--------------------------------*- C++ -*----------------------------------*\
| =========                 |                                                 |
| \\      /  F ield         | OpenFOAM: The Open Source CFD Toolbox           |
|  \\    /   O peration     | Version:  2406                                  |
|   \\  /    A nd           | Website:  www.openfoam.com                      |
|    \\/     M anipulation  |                                                 |
\*---------------------------------------------------------------------------*/
FoamFile
{
    version     2.0;
    format      ascii;
    arch        "LSB;label=32;scalar=64";
    class       polyBoundaryMesh;
    location    "constant/polyMesh";
    object      boundary;
}
// * * * * * * * * * * * * * * * * * * * * * * * * * * * * * * * * * * * * * //

6
(
    FrontBack
    {
        type            empty;
        physicalType    empty;
        nFaces          167304;
        startFace       124924;
    }
    Top
    {
        type            patch;
        physicalType    patch;
        nFaces          440;
        startFace       292228;
    }
    Out
    {
        type            patch;
        physicalType    patch;
        nFaces          82;
        startFace       292668;
    }
    Bottom
    {
        type            patch;
        physicalType    patch;
        nFaces          440;
        startFace       292750;
    }
    In
    {
        type            patch;
        physicalType    patch;
        nFaces          82;
        startFace       293190;
    }
    Circle
    {
        type            patch;
        physicalType    patch;
        nFaces          64;
        startFace       293272;
    }
)

// ************************************************************************* //
